# CIF file generated by openbabel 2.4.1, see http://openbabel.sf.net
data_I
_chemical_name_common ''
_cell_length_a 9.45676
_cell_length_b 10.9289
_cell_length_c 22.9999
_cell_angle_alpha 90
_cell_angle_beta 90
_cell_angle_gamma 90
loop_
    _atom_site_label
    _atom_site_type_symbol
    _atom_site_fract_x
    _atom_site_fract_y
    _atom_site_fract_z
    _atom_site_occupancy
    Mo0     Mo   0.85624   0.33168   0.15960   1.000
    S1      S    0.02474   0.24910   0.22776   1.000
    S2      S    0.02479   0.24647   0.09243   1.000
    Mo3     Mo   0.02498   0.57993   0.16062   1.000
    S4      S    0.85311   0.49703   0.22770   1.000
    S5      S    0.85896   0.49834   0.09126   1.000
    Mo6     Mo   0.85751   0.82963   0.16106   1.000
    S7      S    0.02493   0.74623   0.22901   1.000
    S8      S    0.02519   0.74739   0.09315   1.000
    Mo9     Mo   0.02507   0.08014   0.16098   1.000
    S10     S    0.85774   0.99727   0.22911   1.000
    S11     S    0.85819   0.99668   0.09305   1.000
    Mo12    Mo   0.52457   0.33327   0.15821   1.000
    S13     S    0.68849   0.25171   0.22772   1.000
    S14     S    0.69026   0.24626   0.09148   1.000
    Mo15    Mo   0.68968   0.57886   0.15803   1.000
    H16     H    0.47803   0.44029   0.20016   1.000
    S17     S    0.52490   0.49707   0.08907   1.000
    Mo18    Mo   0.52512   0.82778   0.16007   1.000
    S19     S    0.68881   0.74162   0.22802   1.000
    S20     S    0.69288   0.74658   0.09156   1.000
    Mo21    Mo   0.69119   0.08095   0.16087   1.000
    S22     S    0.52495   0.99517   0.22858   1.000
    S23     S    0.52491   0.99661   0.09290   1.000
    Mo24    Mo   0.19353   0.33143   0.15959   1.000
    S25     S    0.36115   0.25174   0.22780   1.000
    S26     S    0.35959   0.24606   0.09146   1.000
    Mo27    Mo   0.36045   0.57798   0.15831   1.000
    S28     S    0.19654   0.49645   0.22780   1.000
    S29     S    0.19111   0.49817   0.09139   1.000
    Mo30    Mo   0.19263   0.82944   0.16118   1.000
    S31     S    0.36140   0.74124   0.22802   1.000
    S32     S    0.35713   0.74606   0.09183   1.000
    Mo33    Mo   0.35887   0.08098   0.16092   1.000
    S34     S    0.19243   0.99719   0.22912   1.000
    S35     S    0.19208   0.99637   0.09318   1.000
    H36     H    0.54162   0.60281   0.15996   1.000
